Version 4
SHEET 1 880 680
WIRE -48 128 -160 128
WIRE 112 128 32 128
WIRE 176 128 112 128
WIRE 304 128 256 128
WIRE 416 128 304 128
WIRE -160 160 -160 128
WIRE 416 160 416 128
WIRE 112 176 112 128
WIRE 304 176 304 128
WIRE -160 272 -160 240
WIRE 112 272 112 240
WIRE 112 272 -160 272
WIRE 304 272 304 240
WIRE 304 272 112 272
WIRE 416 272 416 240
WIRE 416 272 304 272
WIRE 304 288 304 272
FLAG 304 288 0
SYMBOL ind 160 144 R270
WINDOW 0 32 56 VTop 2
WINDOW 3 5 56 VBottom 2
SYMATTR InstName L1
SYMATTR Value 1.5m
SYMBOL cap 96 176 R0
SYMATTR InstName C1
SYMATTR Value 0.33µ
SYMBOL cap 288 176 R0
SYMATTR InstName C2
SYMATTR Value 0.33µ
SYMBOL voltage -160 144 R0
WINDOW 123 24 124 Left 2
WINDOW 39 0 0 Left 0
SYMATTR Value2 AC 1
SYMATTR InstName V1
SYMATTR Value ""
SYMBOL res 48 112 R90
WINDOW 0 0 56 VBottom 2
WINDOW 3 32 56 VTop 2
SYMATTR InstName R1
SYMATTR Value 50
SYMBOL res 400 144 R0
SYMATTR InstName R2
SYMATTR Value 50
TEXT -192 288 Left 2 !.ac dec 100 10 100000
