Version 4
SHEET 1 880 680
WIRE 240 -128 -304 -128
WIRE 240 -96 240 -128
WIRE 240 32 240 -16
WIRE 288 32 240 32
WIRE 448 32 352 32
WIRE -304 48 -304 -128
WIRE 144 80 128 80
WIRE 240 80 240 32
WIRE 240 80 224 80
WIRE 240 112 240 80
WIRE 448 128 448 32
WIRE 32 160 -160 160
WIRE 128 160 128 80
WIRE 128 160 96 160
WIRE 176 160 128 160
WIRE -160 192 -160 160
WIRE -304 304 -304 128
WIRE -160 304 -160 272
WIRE -160 304 -304 304
WIRE 240 304 240 208
WIRE 240 304 -160 304
WIRE 448 304 448 208
WIRE 448 304 240 304
WIRE 448 352 448 304
FLAG 448 352 0
SYMBOL npn 176 112 R0
SYMATTR InstName Q1
SYMATTR Value 2N3904
SYMBOL cap 96 144 R90
WINDOW 0 0 32 VBottom 2
WINDOW 3 32 32 VTop 2
SYMATTR InstName C1
SYMATTR Value 0.1µ
SYMBOL res 224 -112 R0
SYMATTR InstName R1
SYMATTR Value 680
SYMBOL res 240 64 R90
WINDOW 0 0 56 VBottom 2
WINDOW 3 32 56 VTop 2
SYMATTR InstName R2
SYMATTR Value 10K
SYMBOL voltage -160 176 R0
WINDOW 123 0 0 Left 0
WINDOW 39 0 0 Left 0
SYMATTR InstName V1
SYMATTR Value SINE(0 .1 1000000)
SYMBOL voltage -304 32 R0
SYMATTR InstName V2
SYMATTR Value 12
SYMBOL cap 352 16 R90
WINDOW 0 0 32 VBottom 2
WINDOW 3 32 32 VTop 2
SYMATTR InstName C2
SYMATTR Value 0.1µ
SYMBOL res 432 112 R0
SYMATTR InstName R3
SYMATTR Value 50
TEXT -338 376 Left 2 !.tran 100us
