* C:\Users\HPz420\Documents\GitHub\land-boards\lb-boards\HamRadio\RF-Amp\K&P_RF_Amplifier\K&P_RF_AMP.asc
R1 N001 N002 2.2K
R2 N002 0 470
C1 N002 VIN 100n
Q1 VOUT N002 N003 0 2SC5551A
L1 N001 VOUT 35µ
R3 N003 0 51
C2 N003 N004 100n
V1 N001 0 13.8
V2 VIN 0 AC 1
C5 N001 0 100n
R5 N004 0 4.7
R4 VOUT 0 50
.model NPN NPN
.model PNP PNP
.lib C:\Users\HPz420\Documents\LTspiceXVII\lib\cmp\standard.bjt
.ac dec 100 2MEG 100Meg
.model 2SC5551A NPN(IS=4.58f BF=150 NF=1.003 VAF=35 IKF=1.2 ISE=5f NE=1.6 BR=35 NR=1.001 VAR=20 IKR=10.98m ISC=255.9f NC=1.5 RB=1.5 IRB=300.0m RBM=300m RE=280m RC=1.25 XTB=0 EG=1.11 XTI=3 CJE=2.36p VJE=199.0m MJE=73.20m TF=30.50p XTF=13.45m VTF=280.0m ITF=25.80m PTF=25.7 CJC=3.08p VJC=520.0m MJC=380.8m .15m TR=1.38n FC=1.51m )
* http://ltwiki.org/index.php?title=Standard.bjt
.backanno
.end
