Version 4
SHEET 1 3972 680
WIRE -80 -144 -304 -144
WIRE 48 -144 -80 -144
WIRE 288 -144 48 -144
WIRE -304 -128 -304 -144
WIRE -80 -96 -80 -144
WIRE 288 -96 288 -144
WIRE 48 -48 48 -144
WIRE -304 0 -304 -48
WIRE -80 16 -80 -32
WIRE 288 64 288 -16
WIRE 368 64 288 64
WIRE 480 64 368 64
WIRE 480 112 480 64
WIRE 288 128 288 64
WIRE -144 160 -176 160
WIRE -80 160 -144 160
WIRE 48 160 48 32
WIRE 48 160 -16 160
WIRE 48 176 48 160
WIRE 224 176 48 176
WIRE -176 224 -176 160
WIRE 480 240 480 192
WIRE 288 256 288 224
WIRE 368 256 288 256
WIRE 48 272 48 176
WIRE 368 272 368 256
WIRE 288 304 288 256
WIRE 368 368 368 336
WIRE -176 464 -176 304
WIRE 48 464 48 352
WIRE 48 464 -176 464
WIRE 288 464 288 384
WIRE 288 464 48 464
WIRE 368 464 368 448
WIRE 368 464 288 464
WIRE 368 480 368 464
FLAG -304 0 0
FLAG 368 480 0
FLAG -144 160 VIN
FLAG 368 64 VOUT
FLAG -80 16 0
FLAG 480 240 0
SYMBOL res 32 -64 R0
SYMATTR InstName R1
SYMATTR Value 2.2K
SYMBOL res 32 256 R0
SYMATTR InstName R2
SYMATTR Value 470
SYMBOL cap -16 144 R90
WINDOW 0 0 32 VBottom 2
WINDOW 3 32 32 VTop 2
SYMATTR InstName C1
SYMATTR Value 100n
SYMBOL npn 224 128 R0
SYMATTR InstName Q1
SYMATTR Value 2SC5551A
SYMBOL ind 272 -112 R0
SYMATTR InstName L1
SYMATTR Value 35µ
SYMBOL res 272 288 R0
SYMATTR InstName R3
SYMATTR Value 51
SYMBOL cap 352 272 R0
WINDOW 3 26 48 Left 2
SYMATTR InstName C2
SYMATTR Value 100n
SYMBOL voltage -304 -144 R0
SYMATTR InstName V1
SYMATTR Value 13.8
SYMBOL voltage -176 208 R0
WINDOW 123 24 124 Left 2
WINDOW 39 0 0 Left 0
SYMATTR InstName V2
SYMATTR Value ""
SYMATTR Value2 AC 1
SYMBOL cap -96 -96 R0
SYMATTR InstName C5
SYMATTR Value 100n
SYMBOL res 352 352 R0
SYMATTR InstName R5
SYMATTR Value 4.7
SYMBOL res 464 96 R0
SYMATTR InstName R4
SYMATTR Value 50
TEXT -248 112 VRight 2 !.ac dec 100 2MEG 100Meg
TEXT -552 -176 Left 2 !.model 2SC5551A NPN(IS=4.58f BF=150 NF=1.003 VAF=35 IKF=1.2 ISE=5f NE=1.6 BR=35 NR=1.001 VAR=20 IKR=10.98m ISC=255.9f NC=1.5 RB=1.5 IRB=300.0m RBM=300m RE=280m RC=1.25 XTB=0 EG=1.11 XTI=3 CJE=2.36p VJE=199.0m MJE=73.20m TF=30.50p XTF=13.45m VTF=280.0m ITF=25.80m PTF=25.7 CJC=3.08p VJC=520.0m MJC=380.8m .15m TR=1.38n FC=1.51m )
TEXT 488 -128 Left 2 ;http://ltwiki.org/index.php?title=Standard.bjt
