* C:\Users\HPz420\Documents\GitHub\land-boards\lb-boards\HamRadio\NoiseGen\LTSpice_Sim\1MHzHP.asc
V1 AC1 0 SINE(0 1 1000000 0) AC 1 0 Rser=50
L1 AC1 0 6.8µ
L2 N001 0 3.9µ
L3 N002 0 6.8µ
R1 N002 0 1000000
C1 N001 AC1 2.4n
C2 N002 N001 2.4n
.ac  dec 100 100000 100000000
.backanno
.end
