* C:\Users\HPz420\Documents\GitHub\land-boards\lb-boards\HamRadio\NoiseGen\LTSpice_Sim\CascodeAmp2.asc
Q1 N005 N007 0 0 2N3904
C1 N007 N006 1µ
R1 N001 N002 560
V1 N006 0 SINE(0 0.01 100000000 AC 0.1
V2 N001 0 12
C2 N003 N002 0.001µ
Q2 N002 N004 N005 0 2N3904
R4 N001 N004 120K
R5 N004 0 220K
R6 N001 N007 680K
R7 N007 0 10000000
C3 N004 0 100nF
R2 N003 0 100K
.model NPN NPN
.model PNP PNP
.lib C:\Users\HPz420\Documents\LTspiceXVII\lib\cmp\standard.bjt
;tran 0 100uS 99.9uS
.ac lin 100 100000 1000000000
.backanno
.end
