* C:\Users\HPz420\Documents\GitHub\land-boards\lb-boards\HamRadio\NoiseGen\LTSpice_Sim\CascodeAmp.asc
Q1 N005 N008 0 0 2N3904
C1 N008 N007 0.1µ
R1 N001 N002 560
V1 N007 0 SINE(0 0.1 100000000 AC 0.1
V2 N001 0 12
C2 N003 N002 0.001µ
Q2 N002 N004 N005 0 2N3904
R4 N001 N004 120k
R5 N004 0 150K
R6 N001 N008 680K
R7 N008 0 68K
C3 N004 0 100n
Q3 N001 N003 N006 0 2N3904
R2 N001 N003 30K
R3 N003 0 33K
R8 N006 0 680
C4 N009 N006 100n
R9 N009 0 51
.model NPN NPN
.model PNP PNP
.lib C:\Users\HPz420\Documents\LTspiceXVII\lib\cmp\standard.bjt
;tran 0 100uS 99.9uS
.ac dec 100 1000000 100000000
.backanno
.end
