* C:\Users\HPz420\Documents\GitHub\land-boards\lb-boards\HamRadio\NoiseGen\LTSpice_Sim\OutAmp.asc
Q1 N002 N004 0 0 2N3904
C1 N004 N005 0.1µ
R1 N001 N002 1K
R2 N002 N004 10K
V1 N005 0 SINE(0 0.1 10000000) AC 0.01
V2 N001 0 12
C2 N003 N002 0.001µ
R3 N003 0 50
.model NPN NPN
.model PNP PNP
.lib C:\Users\HPz420\Documents\LTspiceXVII\lib\cmp\standard.bjt
;tran 10us
.ac dec 100 1000000 100000000
.backanno
.end
