Version 4
SHEET 1 1160 680
WIRE 272 -64 80 -64
WIRE 432 -64 272 -64
WIRE 1104 -64 960 -64
WIRE 960 -48 960 -64
WIRE 432 -32 432 -64
WIRE 1104 -16 1104 -64
WIRE 272 16 208 16
WIRE 368 16 272 16
WIRE 480 64 432 64
WIRE 640 64 560 64
WIRE 80 112 80 -64
WIRE 208 112 208 16
WIRE 640 112 640 64
WIRE 704 112 640 112
WIRE 928 112 896 112
WIRE 960 112 960 32
WIRE 960 112 928 112
WIRE 1104 176 1104 64
WIRE 1104 176 896 176
WIRE 80 208 80 192
WIRE 208 208 208 192
WIRE 208 208 80 208
WIRE 608 208 208 208
WIRE 704 208 608 208
WIRE 928 208 896 208
WIRE 80 240 80 208
WIRE 928 256 928 208
WIRE 960 256 928 256
WIRE 1104 256 1104 176
WIRE 1104 256 1040 256
WIRE 608 352 608 208
WIRE 768 352 608 352
WIRE 1104 352 1104 256
WIRE 1104 352 848 352
FLAG 80 240 0
FLAG 272 -64 VCC
FLAG 272 16 VIN
FLAG 928 112 VOUT
SYMBOL voltage 80 96 R0
SYMATTR InstName V1
SYMATTR Value 5
SYMBOL voltage 208 96 R0
WINDOW 123 0 0 Left 2
WINDOW 39 0 0 Left 2
SYMATTR InstName V2
SYMATTR Value PULSE(0 5 2u 0 0 10u)
SYMBOL npn 368 -32 R0
SYMATTR InstName Q1
SYMBOL res 576 48 R90
WINDOW 0 0 56 VBottom 2
WINDOW 3 32 56 VTop 2
SYMATTR InstName R1
SYMATTR Value 75
SYMBOL Optos\\4N25 800 176 R0
SYMATTR InstName U1
SYMBOL res 944 -64 R0
SYMATTR InstName R2
SYMATTR Value 1.2K
SYMBOL res 1056 240 R90
WINDOW 0 0 56 VBottom 2
WINDOW 3 32 56 VTop 2
SYMATTR InstName R3
SYMATTR Value 47K
SYMBOL voltage 1104 -32 R0
SYMATTR InstName V3
SYMATTR Value 5
SYMBOL res 864 336 R90
WINDOW 0 0 56 VBottom 2
WINDOW 3 32 56 VTop 2
SYMATTR InstName R4
SYMATTR Value 1000K
TEXT 48 264 Left 2 !.tran 25uS
