Version 4
SHEET 1 1464 936
WIRE 48 128 -304 128
WIRE 1136 128 304 128
WIRE 176 288 176 224
WIRE 592 288 176 288
WIRE 960 288 592 288
WIRE 1376 288 960 288
WIRE 352 320 -64 320
WIRE 720 320 352 320
WIRE 1136 320 1136 128
WIRE 1136 320 720 320
WIRE -304 352 -304 128
WIRE 176 368 176 288
WIRE 592 368 592 288
WIRE 960 368 960 288
WIRE 1376 368 1376 288
WIRE -64 416 -64 320
WIRE -32 416 -64 416
WIRE 112 416 48 416
WIRE 352 416 352 320
WIRE 384 416 352 416
WIRE 528 416 464 416
WIRE 720 416 720 320
WIRE 752 416 720 416
WIRE 896 416 832 416
WIRE 1136 416 1136 320
WIRE 1168 416 1136 416
WIRE 1312 416 1248 416
WIRE -64 464 -64 416
WIRE 352 464 352 416
WIRE 720 464 720 416
WIRE 1136 464 1136 416
WIRE -64 560 -64 544
WIRE 176 560 176 464
WIRE 176 560 -64 560
WIRE 352 560 352 544
WIRE 592 560 592 464
WIRE 592 560 352 560
WIRE 720 560 720 544
WIRE 960 560 960 464
WIRE 960 560 720 560
WIRE 1136 560 1136 544
WIRE 1376 560 1376 464
WIRE 1376 560 1136 560
WIRE -64 592 -64 560
WIRE 352 592 352 560
WIRE 720 592 720 560
WIRE 1136 592 1136 560
WIRE -64 688 -64 656
WIRE 352 688 352 656
WIRE 720 688 720 656
WIRE 1136 688 1136 656
WIRE -64 768 -64 752
WIRE 352 768 352 752
WIRE 720 768 720 752
WIRE 1136 768 1136 752
WIRE -304 864 -304 432
WIRE -64 864 -64 832
WIRE -64 864 -304 864
WIRE 352 864 352 832
WIRE 352 864 -64 864
WIRE 720 864 720 832
WIRE 720 864 352 864
WIRE 1136 864 1136 832
WIRE 1136 864 720 864
WIRE -304 896 -304 864
FLAG -304 896 0
SYMBOL PowerProducts\\LT317A 176 128 R0
SYMATTR InstName U1
SYMBOL voltage -304 336 R0
SYMATTR InstName V1
SYMATTR Value 12
SYMBOL npn 112 368 R0
SYMATTR InstName Q2
SYMATTR Value 2N2222
SYMBOL res 64 400 R90
WINDOW 0 0 56 VBottom 2
WINDOW 3 32 56 VTop 2
SYMATTR InstName R1
SYMATTR Value 10K
SYMBOL res -48 560 R180
WINDOW 0 36 76 Left 2
WINDOW 3 36 40 Left 2
SYMATTR InstName R2
SYMATTR Value 12
SYMBOL LED -80 592 R0
SYMATTR InstName D1
SYMATTR Value LUW-W5AP
SYMBOL LED -80 688 R0
SYMATTR InstName D2
SYMATTR Value LUW-W5AP
SYMBOL LED -80 768 R0
SYMATTR InstName D3
SYMATTR Value LUW-W5AP
SYMBOL npn 528 368 R0
SYMATTR InstName Q1
SYMATTR Value 2N2222
SYMBOL res 480 400 R90
WINDOW 0 0 56 VBottom 2
WINDOW 3 32 56 VTop 2
SYMATTR InstName R3
SYMATTR Value 10K
SYMBOL res 368 560 R180
WINDOW 0 36 76 Left 2
WINDOW 3 36 40 Left 2
SYMATTR InstName R4
SYMATTR Value 12
SYMBOL LED 336 592 R0
SYMATTR InstName D4
SYMATTR Value LUW-W5AP
SYMBOL LED 336 688 R0
SYMATTR InstName D5
SYMATTR Value LUW-W5AP
SYMBOL LED 336 768 R0
SYMATTR InstName D6
SYMATTR Value LUW-W5AP
SYMBOL npn 896 368 R0
SYMATTR InstName Q3
SYMATTR Value 2N2222
SYMBOL res 848 400 R90
WINDOW 0 0 56 VBottom 2
WINDOW 3 32 56 VTop 2
SYMATTR InstName R5
SYMATTR Value 1K
SYMBOL res 736 560 R180
WINDOW 0 36 76 Left 2
WINDOW 3 36 40 Left 2
SYMATTR InstName R6
SYMATTR Value 12
SYMBOL LED 704 592 R0
SYMATTR InstName D7
SYMATTR Value LUW-W5AP
SYMBOL LED 704 688 R0
SYMATTR InstName D8
SYMATTR Value LUW-W5AP
SYMBOL LED 704 768 R0
SYMATTR InstName D9
SYMATTR Value LUW-W5AP
SYMBOL npn 1312 368 R0
SYMATTR InstName Q4
SYMATTR Value 2N2222
SYMBOL res 1264 400 R90
WINDOW 0 0 56 VBottom 2
WINDOW 3 32 56 VTop 2
SYMATTR InstName R7
SYMATTR Value 10K
SYMBOL res 1152 560 R180
WINDOW 0 36 76 Left 2
WINDOW 3 36 40 Left 2
SYMATTR InstName R8
SYMATTR Value 12
SYMBOL LED 1120 592 R0
SYMATTR InstName D10
SYMATTR Value LUW-W5AP
SYMBOL LED 1120 688 R0
SYMATTR InstName D11
SYMATTR Value LUW-W5AP
SYMBOL LED 1120 768 R0
SYMATTR InstName D12
SYMATTR Value LUW-W5AP
TEXT -338 920 Left 2 !.tran 20 100ms 25ms
