* C:\Users\DGilliland\Documents\GitHub\lb-boards\CCLOAD-01\SpiceSim\CC-Load-01.asc
XU2 Vin N001 N002 0 Vout MCP6001
V1 Vin 0 SINE(0 0 10k) AC .05
V3 N002 0 3
R1 0 N001 1K
R2 N001 Vout 9.09K
.tran 0 100m 1m 10u uic
.inc MCP6001.sub
.backanno
.end
