Version 4
SHEET 1 1864 1444
WIRE 144 -80 0 -80
WIRE 1104 -80 960 -80
WIRE 144 0 144 -80
WIRE 1104 0 1104 -80
WIRE 0 16 0 -80
WIRE 960 16 960 -80
WIRE 144 208 144 80
WIRE 272 208 144 208
WIRE 1104 208 1104 80
WIRE 1232 208 1104 208
WIRE 560 288 144 288
WIRE 816 288 560 288
WIRE 1520 288 1104 288
WIRE 1776 288 1520 288
WIRE 560 336 560 288
WIRE 1520 336 1520 288
WIRE 272 352 272 208
WIRE 1232 352 1232 208
WIRE 816 400 816 288
WIRE 1776 400 1776 288
WIRE 144 432 144 288
WIRE 224 432 144 432
WIRE 1104 432 1104 288
WIRE 1184 432 1104 432
WIRE 560 480 560 416
WIRE 560 480 480 480
WIRE 1520 480 1520 416
WIRE 1520 480 1440 480
WIRE 560 496 560 480
WIRE 1520 496 1520 480
WIRE 272 528 272 448
WIRE 416 528 272 528
WIRE 1232 528 1232 448
WIRE 1376 528 1232 528
WIRE 560 576 480 576
WIRE 1520 576 1440 576
WIRE 560 608 560 576
WIRE 816 608 816 480
WIRE 816 608 560 608
WIRE 1520 608 1520 576
WIRE 1776 608 1776 480
WIRE 1776 608 1520 608
WIRE 560 640 560 608
WIRE 1520 640 1520 608
WIRE 272 688 272 528
WIRE 1232 688 1232 528
FLAG 0 16 0
FLAG 272 768 0
FLAG 560 640 0
FLAG 960 16 0
FLAG 1232 768 0
FLAG 1520 640 0
SYMBOL voltage 144 96 R180
WINDOW 123 0 0 Left 0
WINDOW 39 24 124 Left 2
WINDOW 3 46 103 Left 2
SYMATTR SpiceLine Rser=0
SYMATTR Value 20
SYMATTR InstName V1
SYMBOL res 128 192 R0
SYMATTR InstName R1
SYMATTR Value 2.2k
SYMBOL res 256 672 R0
SYMATTR InstName R2
SYMATTR Value 33.2
SYMBOL res 544 320 R0
SYMATTR InstName R3
SYMATTR Value 220
SYMBOL res 544 480 R0
SYMATTR InstName R4
SYMATTR Value 22k
SYMBOL npn 416 480 R0
SYMATTR InstName Q1
SYMATTR Value 2N3904
SYMBOL res 800 384 R0
SYMATTR InstName R5
SYMATTR Value 1Meg
SYMBOL nmos 224 352 R0
SYMATTR InstName M2
SYMATTR Value BS170
SYMATTR Prefix X
SYMBOL voltage 1104 96 R180
WINDOW 123 0 0 Left 0
WINDOW 39 24 124 Left 2
WINDOW 3 46 103 Left 2
SYMATTR SpiceLine Rser=0
SYMATTR Value 9
SYMATTR InstName V2
SYMBOL res 1088 192 R0
SYMATTR InstName R6
SYMATTR Value 2.2k
SYMBOL res 1216 672 R0
SYMATTR InstName R7
SYMATTR Value 33.2
SYMBOL res 1504 320 R0
SYMATTR InstName R8
SYMATTR Value 220
SYMBOL res 1504 480 R0
SYMATTR InstName R9
SYMATTR Value 22k
SYMBOL npn 1376 480 R0
SYMATTR InstName Q2
SYMATTR Value 2N3904
SYMBOL res 1760 384 R0
SYMATTR InstName R10
SYMATTR Value 1Meg
SYMBOL nmos 1184 352 R0
SYMATTR InstName M1
SYMATTR Value BS170
SYMATTR Prefix X
TEXT -24 664 Left 2 !.tran .000000001
TEXT 336 152 Left 2 !.include bs170.txt
