Version 4
SHEET 1 2320 680
WIRE 1680 -208 1584 -208
WIRE 2064 -208 1680 -208
WIRE 2208 -208 2064 -208
WIRE 2208 -192 2208 -208
WIRE 96 -128 0 -128
WIRE 560 -128 96 -128
WIRE 672 -128 560 -128
WIRE 672 -112 672 -128
WIRE 2064 -64 2064 -208
WIRE 2208 -64 2208 -112
WIRE 672 16 672 -32
WIRE 1680 96 1680 -208
WIRE 96 176 96 -128
WIRE 2064 176 2064 16
WIRE 2064 176 1840 176
WIRE 864 224 688 224
WIRE 1536 224 1168 224
WIRE 1680 224 1680 176
WIRE 1680 224 1600 224
WIRE 1776 224 1680 224
WIRE 1168 240 1168 224
WIRE 480 256 256 256
WIRE 1680 272 1680 224
WIRE 560 288 560 -128
WIRE 688 288 688 224
WIRE 1840 288 1840 272
WIRE -48 304 -416 304
WIRE 96 304 96 256
WIRE 96 304 16 304
WIRE 192 304 96 304
WIRE 864 304 864 224
WIRE -416 320 -416 304
WIRE 96 352 96 304
WIRE 256 368 256 352
WIRE 304 368 256 368
WIRE 1168 368 1168 320
WIRE 1840 384 1840 368
WIRE 1952 384 1840 384
WIRE 256 400 256 368
WIRE 368 400 368 368
WIRE 688 400 688 368
WIRE 480 416 480 256
WIRE 560 416 560 368
WIRE 560 416 480 416
WIRE 1840 416 1840 384
WIRE 1952 416 1952 384
WIRE -416 448 -416 400
WIRE 256 496 256 480
WIRE 368 496 368 480
WIRE 368 496 256 496
WIRE 256 512 256 496
WIRE 1840 512 1840 496
WIRE 1952 512 1952 480
WIRE 1952 512 1840 512
WIRE 1840 528 1840 512
FLAG -416 448 0
FLAG 96 432 0
FLAG 256 512 0
FLAG 688 400 0
FLAG 0 -64 0
FLAG 864 384 0
FLAG 672 16 0
FLAG 1168 368 0
FLAG 1680 352 0
FLAG 1840 528 0
FLAG 1584 -144 0
FLAG 2208 -64 0
SYMBOL voltage -416 304 R0
WINDOW 123 0 0 Left 0
WINDOW 39 24 124 Left 2
SYMATTR SpiceLine Rser=0
SYMATTR InstName V1
SYMATTR Value SINE(0 .01 14000000)
SYMBOL res 80 160 R0
SYMATTR InstName R1
SYMATTR Value 4.7k
SYMBOL res 80 336 R0
SYMATTR InstName R2
SYMATTR Value 1k
SYMBOL res 240 384 R0
SYMATTR InstName R3
SYMATTR Value 40
SYMBOL cap 368 352 R90
WINDOW 0 0 32 VBottom 2
WINDOW 3 32 32 VTop 2
SYMATTR InstName C1
SYMATTR Value 100nF
SYMBOL res 352 384 R0
SYMATTR InstName R4
SYMATTR Value 40
SYMBOL npn 192 256 R0
SYMATTR InstName Q1
SYMATTR Value 2N3904
SYMBOL cap 16 288 R90
WINDOW 0 0 32 VBottom 2
WINDOW 3 32 32 VTop 2
SYMATTR InstName C2
SYMATTR Value 100nF
SYMBOL ind2 544 384 M180
WINDOW 0 38 80 Left 2
WINDOW 3 37 56 Left 2
SYMATTR InstName L1
SYMATTR Value 100µH
SYMATTR Type ind
SYMBOL ind2 704 384 R180
WINDOW 0 -36 84 Left 2
WINDOW 3 -52 55 Left 2
SYMATTR InstName L2
SYMATTR Value 100µH
SYMATTR Type ind
SYMBOL cap -16 -128 R0
SYMATTR InstName C3
SYMATTR Value .1µF
SYMBOL res 848 288 R0
SYMATTR InstName R5
SYMATTR Value 1000
SYMBOL voltage 672 -128 R0
WINDOW 123 0 0 Left 0
WINDOW 39 24 124 Left 2
SYMATTR SpiceLine Rser=0
SYMATTR InstName V2
SYMATTR Value 12
SYMBOL voltage 1168 224 R0
WINDOW 123 0 0 Left 0
WINDOW 39 24 124 Left 2
SYMATTR SpiceLine Rser=0
SYMATTR InstName V3
SYMATTR Value SINE(0 .001 10000)
SYMBOL res 1664 80 R0
SYMATTR InstName R6
SYMATTR Value 20k
SYMBOL res 1664 256 R0
SYMATTR InstName R7
SYMATTR Value 3.6k
SYMBOL res 1824 400 R0
SYMATTR InstName R8
SYMATTR Value 220
SYMBOL npn 1776 176 R0
SYMATTR InstName Q2
SYMATTR Value 2N3904
SYMBOL cap 1600 208 R90
WINDOW 0 0 32 VBottom 2
WINDOW 3 32 32 VTop 2
SYMATTR InstName C5
SYMATTR Value 10µF
SYMBOL cap 1568 -208 R0
SYMATTR InstName C6
SYMATTR Value .1µF
SYMBOL voltage 2208 -208 R0
WINDOW 123 0 0 Left 0
WINDOW 39 24 124 Left 2
SYMATTR SpiceLine Rser=0
SYMATTR InstName V4
SYMATTR Value 12
SYMBOL res 2048 -80 R0
SYMATTR InstName R10
SYMATTR Value 1.2k
SYMBOL cap 1936 416 R0
SYMATTR InstName C4
SYMATTR Value 10µF
SYMBOL res 1824 272 R0
SYMATTR InstName R9
SYMATTR Value .01
TEXT 576 456 Left 2 !K3 L1 L2 1
TEXT -448 536 Left 2 !.tran .000001
