Version 4
SHEET 1 3412 1636
WIRE 2848 -336 2800 -336
WIRE 2960 -336 2912 -336
WIRE 2240 -224 2016 -224
WIRE 2464 -224 2320 -224
WIRE 2640 -224 2528 -224
WIRE 2688 -224 2640 -224
WIRE 2800 -224 2800 -336
WIRE 2800 -224 2768 -224
WIRE 2848 -224 2800 -224
WIRE 2960 -224 2960 -336
WIRE 2960 -224 2928 -224
WIRE 3328 -224 2960 -224
WIRE 2016 -208 2016 -224
WIRE 3328 -192 3328 -224
WIRE 2016 -80 2016 -128
WIRE 2848 176 2800 176
WIRE 2960 176 2912 176
WIRE 2240 288 2016 288
WIRE 2464 288 2320 288
WIRE 2640 288 2528 288
WIRE 2688 288 2640 288
WIRE 2800 288 2800 176
WIRE 2800 288 2768 288
WIRE 2848 288 2800 288
WIRE 2960 288 2960 176
WIRE 2960 288 2928 288
WIRE 3328 288 2960 288
WIRE 2016 304 2016 288
WIRE 3328 320 3328 288
WIRE 2016 432 2016 384
WIRE 2256 800 2032 800
WIRE 2480 800 2336 800
WIRE 2656 800 2544 800
WIRE 2704 800 2656 800
WIRE 2816 800 2784 800
WIRE 2864 800 2816 800
WIRE 2976 800 2944 800
WIRE 3344 800 2976 800
WIRE 2032 816 2032 800
WIRE 3344 832 3344 800
WIRE 2032 944 2032 896
FLAG 2032 944 0
FLAG 3344 912 0
FLAG 2656 864 0
FLAG 2816 864 0
FLAG 2976 864 0
FLAG 2016 432 0
FLAG 3328 400 0
FLAG 2640 352 0
FLAG 2800 352 0
FLAG 2960 352 0
FLAG 2016 -80 0
FLAG 3328 -112 0
FLAG 2640 -160 0
FLAG 2800 -160 0
FLAG 2960 -160 0
SYMBOL voltage 2032 800 R0
WINDOW 123 0 0 Left 0
WINDOW 39 24 124 Left 2
SYMATTR SpiceLine Rser=0
SYMATTR InstName V3
SYMATTR Value SINE(0 1 14000000)
SYMBOL res 3328 816 R0
SYMATTR InstName R12
SYMATTR Value 50
SYMBOL cap 2640 800 R0
SYMATTR InstName C6
SYMATTR Value 220p
SYMBOL cap 2800 800 R0
SYMATTR InstName C7
SYMATTR Value 390p
SYMBOL cap 2960 800 R0
SYMATTR InstName C8
SYMATTR Value 220p
SYMBOL ind 2688 816 R270
WINDOW 0 32 56 VTop 2
WINDOW 3 5 56 VBottom 2
SYMATTR InstName L9
SYMATTR Value .68µH
SYMBOL ind 2848 816 R270
WINDOW 0 32 56 VTop 2
WINDOW 3 5 56 VBottom 2
SYMATTR InstName L10
SYMATTR Value .68µH
SYMBOL cap 2544 784 R90
WINDOW 0 0 32 VBottom 2
WINDOW 3 32 32 VTop 2
SYMATTR InstName C1
SYMATTR Value .1µF
SYMBOL res 2352 784 R90
WINDOW 0 0 56 VBottom 2
WINDOW 3 32 56 VTop 2
SYMATTR InstName R1
SYMATTR Value 50
SYMBOL voltage 2016 288 R0
WINDOW 123 0 0 Left 0
WINDOW 39 24 124 Left 2
SYMATTR SpiceLine Rser=0
SYMATTR InstName V1
SYMATTR Value SINE(0 1 14000000)
SYMBOL res 3312 304 R0
SYMATTR InstName R2
SYMATTR Value 50
SYMBOL cap 2624 288 R0
SYMATTR InstName C2
SYMATTR Value 150p
SYMBOL cap 2784 288 R0
SYMATTR InstName C3
SYMATTR Value 390p
SYMBOL cap 2944 288 R0
SYMATTR InstName C4
SYMATTR Value 220p
SYMBOL ind 2672 304 R270
WINDOW 0 32 56 VTop 2
WINDOW 3 5 56 VBottom 2
SYMATTR InstName L1
SYMATTR Value .51µH
SYMBOL ind 2832 304 R270
WINDOW 0 32 56 VTop 2
WINDOW 3 5 56 VBottom 2
SYMATTR InstName L2
SYMATTR Value .59µH
SYMBOL cap 2528 272 R90
WINDOW 0 0 32 VBottom 2
WINDOW 3 32 32 VTop 2
SYMATTR InstName C5
SYMATTR Value .1µF
SYMBOL res 2336 272 R90
WINDOW 0 0 56 VBottom 2
WINDOW 3 32 56 VTop 2
SYMATTR InstName R3
SYMATTR Value 32
SYMBOL cap 2912 160 R90
WINDOW 0 0 32 VBottom 2
WINDOW 3 32 32 VTop 2
SYMATTR InstName C9
SYMATTR Value 33p
SYMBOL voltage 2016 -224 R0
WINDOW 123 0 0 Left 0
WINDOW 39 24 124 Left 2
SYMATTR SpiceLine Rser=0
SYMATTR InstName V2
SYMATTR Value SINE(0 1 10000000)
SYMBOL res 3312 -208 R0
SYMATTR InstName R4
SYMATTR Value 50
SYMBOL cap 2624 -224 R0
SYMATTR InstName C10
SYMATTR Value 220p
SYMBOL cap 2784 -224 R0
SYMATTR InstName C11
SYMATTR Value 560p
SYMBOL cap 2944 -224 R0
SYMATTR InstName C12
SYMATTR Value 330p
SYMBOL ind 2672 -208 R270
WINDOW 0 32 56 VTop 2
WINDOW 3 5 56 VBottom 2
SYMATTR InstName L3
SYMATTR Value .71µH
SYMBOL ind 2832 -208 R270
WINDOW 0 32 56 VTop 2
WINDOW 3 5 56 VBottom 2
SYMATTR InstName L4
SYMATTR Value .78µH
SYMBOL cap 2528 -240 R90
WINDOW 0 0 32 VBottom 2
WINDOW 3 32 32 VTop 2
SYMATTR InstName C13
SYMATTR Value .1µF
SYMBOL res 2336 -240 R90
WINDOW 0 0 56 VBottom 2
WINDOW 3 32 56 VTop 2
SYMATTR InstName R5
SYMATTR Value 40
SYMBOL cap 2912 -352 R90
WINDOW 0 0 32 VBottom 2
WINDOW 3 32 32 VTop 2
SYMATTR InstName C14
SYMATTR Value 33p
TEXT 2128 992 Left 2 !.tran .000001
TEXT 2528 416 Left 2 ;20 meter Filter from Phaser
TEXT 2528 -96 Left 2 ;30 meter Filter from Phaser
