* C:\Users\HPz420\Documents\GitHub\land-boards\lb-boards\HamRadio\RF-Amp\K&P_RF_Amplifier\LTSpice_Sims\K&P_Amp_With_xfmr\K&P_RF_AMP_TRANSORMER.asc
R1 N001 N005 2.2K
R2 N005 0 470
C1 N005 VIN 100n
Q1 N004 N005 N006 0 2SC5551A
L1 N004 N001 35µ
R3 N006 0 51
C2 N006 N007 100n
V1 N002 0 13.8
V2 VIN 0 AC 1
R5 N007 0 4.7
R4 N003 0 50
L2 N001 N002 35µ
C3 0 N002 100n
C4 N003 N001 100n
.model NPN NPN
.model PNP PNP
.lib C:\Users\HPz420\Documents\LTspiceXVII\lib\cmp\standard.bjt
.ac dec 100 2MEG 30Meg
.model 2SC5551A NPN(IS=4.58f BF=150 NF=1.003 VAF=35 IKF=1.2 ISE=5f NE=1.6 BR=35 NR=1.001 VAR=20 IKR=10.98m ISC=255.9f NC=1.5 RB=1.5 IRB=300.0m RBM=300m RE=280m RC=1.25 XTB=0 EG=1.11 XTI=3 CJE=2.36p VJE=199.0m MJE=73.20m TF=30.50p XTF=13.45m VTF=280.0m ITF=25.80m PTF=25.7 CJC=3.08p VJC=520.0m MJC=380.8m .15m TR=1.38n FC=1.51m )
* http://ltwiki.org/index.php?title=Standard.bjt
K1 L1 L2 1
.backanno
.end
