Version 4
SHEET 1 880 680
WIRE 208 -80 -80 -80
WIRE -80 -48 -80 -80
WIRE 208 -32 208 -80
WIRE 336 -32 208 -32
WIRE 480 -32 416 -32
WIRE 208 16 208 -32
WIRE 480 64 384 64
WIRE 208 112 208 96
WIRE 320 112 208 112
WIRE 208 144 208 112
WIRE 64 192 -32 192
WIRE -32 272 -32 192
WIRE 208 272 208 240
WIRE 384 272 384 160
WIRE 384 272 208 272
WIRE 384 304 384 272
FLAG 384 304 0
FLAG -80 32 0
FLAG -32 352 0
SYMBOL npn 144 144 R0
SYMATTR InstName Q1
SYMATTR Value 2N3904
SYMBOL npn 320 64 R0
SYMATTR InstName Q2
SYMATTR Value 2N3904
SYMBOL res 160 176 R90
WINDOW 0 0 56 VBottom 2
WINDOW 3 32 56 VTop 2
SYMATTR InstName R1
SYMATTR Value 2.2k
SYMBOL res 224 112 R180
WINDOW 0 36 76 Left 2
WINDOW 3 36 40 Left 2
SYMATTR InstName R2
SYMATTR Value 470
SYMBOL Optos\\4N26 576 32 R0
SYMATTR InstName U1
SYMBOL voltage -80 -64 R0
SYMATTR InstName V1
SYMATTR Value 5
SYMBOL voltage -32 256 R0
WINDOW 123 0 0 Left 0
WINDOW 39 0 0 Left 0
SYMATTR InstName V2
SYMATTR Value PULSE(0 5 5us 0 0 10us 30us 5)
SYMBOL res 432 -48 R90
WINDOW 0 0 56 VBottom 2
WINDOW 3 32 56 VTop 2
SYMATTR InstName R3
SYMATTR Value 440
TEXT -114 376 Left 2 !.tran 0 100us 0
