* C:\Users\HPz420\Documents\GitHub\land-boards\lb-boards\HamRadio\RF-Amp\LTSpice\ZL2CTM_REFAMP\ZL2CTM_RF_AMP.asc
R1 N002 N005 10K
R2 N005 0 2K
C1 N005 VIN 100n
Q1 N004 N005 N006 0 2N3904
L1 N002 N004 1µ
R3 N006 0 220
C2 N006 0 100n
R4 N002 N001 100
R5 N003 N005 510
C3 N004 N003 10n
C4 VOUT N004 100n
R6 VOUT 0 10K
V1 N001 0 13.8
V2 VIN 0 AC 1
C5 N002 0 100n
C6 N002 0 100µ
.model NPN NPN
.model PNP PNP
.lib C:\Users\HPz420\Documents\LTspiceXVII\lib\cmp\standard.bjt
.ac dec 100 2MEG 30Meg
.backanno
.end
