Version 4
SHEET 1 880 680
WIRE -64 96 -160 96
WIRE 112 96 0 96
WIRE 304 96 192 96
WIRE -160 192 -160 96
WIRE -160 192 -368 192
WIRE -144 192 -160 192
WIRE 0 192 -64 192
WIRE 144 192 0 192
WIRE 192 192 144 192
WIRE 304 192 304 96
WIRE 304 192 272 192
WIRE 384 192 304 192
WIRE 0 208 0 192
WIRE -368 224 -368 192
WIRE 144 224 144 192
WIRE 384 224 384 192
WIRE -368 336 -368 304
WIRE 0 336 0 288
WIRE 0 336 -368 336
WIRE 144 336 144 288
WIRE 144 336 0 336
WIRE 384 336 384 304
WIRE 384 336 144 336
WIRE 384 352 384 336
FLAG 384 352 0
SYMBOL cap 128 224 R0
SYMATTR InstName C3
SYMATTR Value 1000pF
SYMBOL cap 0 80 R90
WINDOW 0 0 32 VBottom 2
WINDOW 3 32 32 VTop 2
SYMATTR InstName C1
SYMATTR Value 40pf
SYMBOL res -48 176 R90
WINDOW 0 0 56 VBottom 2
WINDOW 3 32 56 VTop 2
SYMATTR InstName R7
SYMATTR Value 51
SYMBOL res 288 176 R90
WINDOW 0 0 56 VBottom 2
WINDOW 3 32 56 VTop 2
SYMATTR InstName R8
SYMATTR Value 51
SYMBOL ind 96 112 R270
WINDOW 0 32 56 VTop 2
WINDOW 3 5 56 VBottom 2
SYMATTR InstName L1
SYMATTR Value 8.0µH
SYMBOL ind -16 192 R0
SYMATTR InstName L2
SYMATTR Value 250nh
SYMBOL res 368 208 R0
SYMATTR InstName R1
SYMATTR Value 50
SYMBOL voltage -368 208 R0
WINDOW 3 24 44 Left 2
WINDOW 123 24 100 Left 2
WINDOW 39 24 72 Left 2
SYMATTR Value 0
SYMATTR Value2 AC 1
SYMATTR SpiceLine Rser=50
SYMATTR InstName V1
TEXT -400 376 Left 2 !.ac lin 100 1MEG 30MEG
