Version 4
SHEET 1 880 680
WIRE 128 -128 -192 -128
WIRE 240 -128 128 -128
WIRE 240 -96 240 -128
WIRE 128 -16 128 -128
WIRE 240 32 240 -16
WIRE 288 32 240 32
WIRE 448 32 352 32
WIRE -192 80 -192 -128
WIRE 240 112 240 32
WIRE 16 160 -48 160
WIRE 128 160 128 64
WIRE 128 160 80 160
WIRE 176 160 128 160
WIRE 448 160 448 32
WIRE -48 240 -48 160
WIRE 240 240 240 208
WIRE 336 240 240 240
WIRE 240 272 240 240
WIRE 336 272 336 240
WIRE -192 400 -192 160
WIRE -48 400 -48 320
WIRE -48 400 -192 400
WIRE 240 400 240 352
WIRE 240 400 -48 400
WIRE 336 400 336 336
WIRE 336 400 240 400
WIRE 448 400 448 240
WIRE 448 400 336 400
WIRE 448 448 448 400
FLAG 448 448 0
SYMBOL npn 176 112 R0
SYMATTR InstName Q1
SYMATTR Value 2N3904
SYMBOL cap 80 144 R90
WINDOW 0 0 32 VBottom 2
WINDOW 3 32 32 VTop 2
SYMATTR InstName C1
SYMATTR Value 0.1µ
SYMBOL res 224 -112 R0
SYMATTR InstName R1
SYMATTR Value 4.7K
SYMBOL voltage -48 224 R0
WINDOW 123 24 124 Left 2
WINDOW 39 0 0 Left 0
SYMATTR Value2 AC 1
SYMATTR InstName V1
SYMATTR Value ""
SYMBOL voltage -192 64 R0
SYMATTR InstName V2
SYMATTR Value 12
SYMBOL cap 352 16 R90
WINDOW 0 0 32 VBottom 2
WINDOW 3 32 32 VTop 2
SYMATTR InstName C2
SYMATTR Value 0.1µ
SYMBOL res 432 144 R0
SYMATTR InstName R3
SYMATTR Value 50
SYMBOL res 224 256 R0
SYMATTR InstName R2
SYMATTR Value 1K
SYMBOL cap 320 272 R0
SYMATTR InstName C3
SYMATTR Value 0.1µ
SYMBOL res 112 -32 R0
SYMATTR InstName R4
SYMATTR Value 470K
TEXT -336 472 Left 2 !;tran 10us
TEXT -40 480 Left 2 !.ac dec 100 1MEG 100MEG
