* C:\Users\HPz420\Documents\GitHub\land-boards\lb-boards\HamRadio\RF-Amp\LTSpice\2n3904 amp.asc
V1 N004 0 AC 1 Rser=50
R1 N001 N006 15K
R2 N006 0 3.3K
R3 N007 0 120
Q1 N003 N006 N007 0 2N3904
C3 N006 N005 100nF
L1 N003 N001 28.35µH
L2 0 N002 8.75µH
C4 N001 0 .1µF
R5 N002 0 50
V2 N001 0 12 Rser=10
C1 N007 0 0.1µ
L3 0 N004 38.3µH
L4 0 N005 42.4µH
.model NPN NPN
.model PNP PNP
.lib C:\Users\HPz420\Documents\LTspiceXVII\lib\cmp\standard.bjt
K2 L1 L2 1
.ac dec 100 1MEG 30MEG
K1 L3 L4 1
.backanno
.end
