Version 4
SHEET 1 976 680
WIRE -688 -80 -848 -80
WIRE -544 -80 -608 -80
WIRE 112 -80 16 -80
WIRE 576 -80 112 -80
WIRE 688 -80 576 -80
WIRE 688 -64 688 -80
WIRE -848 -16 -848 -80
WIRE 688 64 688 16
WIRE -848 112 -848 64
WIRE -544 112 -544 -80
WIRE 112 224 112 -80
WIRE 880 272 704 272
WIRE 496 304 272 304
WIRE 576 336 576 -80
WIRE 704 336 704 272
WIRE -224 352 -400 352
WIRE -32 352 -144 352
WIRE 112 352 112 304
WIRE 112 352 32 352
WIRE 208 352 112 352
WIRE 880 352 880 272
WIRE -400 368 -400 352
WIRE 112 400 112 352
WIRE 272 416 272 400
WIRE 320 416 272 416
WIRE 272 448 272 416
WIRE 384 448 384 416
WIRE 704 448 704 416
WIRE 496 464 496 304
WIRE 576 464 576 416
WIRE 576 464 496 464
WIRE -400 496 -400 448
WIRE 272 544 272 528
WIRE 384 544 384 528
WIRE 384 544 272 544
WIRE 272 560 272 544
FLAG -400 496 0
FLAG 112 480 0
FLAG 272 560 0
FLAG 704 448 0
FLAG 16 -16 0
FLAG 880 432 0
FLAG 688 64 0
FLAG -848 112 0
FLAG -544 112 0
SYMBOL voltage -400 352 R0
WINDOW 123 0 0 Left 0
WINDOW 39 24 124 Left 2
SYMATTR SpiceLine Rser=0
SYMATTR InstName V1
SYMATTR Value SINE(0 .035 14000000)
SYMBOL res 96 208 R0
SYMATTR InstName R1
SYMATTR Value 4.7k
SYMBOL res 96 384 R0
SYMATTR InstName R2
SYMATTR Value 1k
SYMBOL res 256 432 R0
SYMATTR InstName R3
SYMATTR Value 47
SYMBOL cap 384 400 R90
WINDOW 0 0 32 VBottom 2
WINDOW 3 32 32 VTop 2
SYMATTR InstName C2
SYMATTR Value 100nF
SYMBOL res 368 432 R0
SYMATTR InstName R4
SYMATTR Value 47
SYMBOL npn 208 304 R0
SYMATTR InstName Q1
SYMATTR Value 2N3904
SYMBOL cap 32 336 R90
WINDOW 0 0 32 VBottom 2
WINDOW 3 32 32 VTop 2
SYMATTR InstName C3
SYMATTR Value 100nF
SYMBOL ind2 560 432 M180
WINDOW 0 38 80 Left 2
WINDOW 3 37 56 Left 2
SYMATTR InstName L1
SYMATTR Value 201µH
SYMATTR Type ind
SYMBOL ind2 720 432 R180
WINDOW 0 -36 84 Left 2
WINDOW 3 -52 55 Left 2
SYMATTR InstName L2
SYMATTR Value 17.5µH
SYMATTR Type ind
SYMBOL cap 0 -80 R0
SYMATTR InstName C4
SYMATTR Value .1µF
SYMBOL res 864 336 R0
SYMATTR InstName R5
SYMATTR Value 30
SYMBOL voltage 688 -80 R0
WINDOW 123 0 0 Left 0
WINDOW 39 24 124 Left 2
SYMATTR SpiceLine Rser=0
SYMATTR InstName V2
SYMATTR Value 12
SYMBOL voltage -848 -32 R0
WINDOW 123 0 0 Left 0
WINDOW 39 24 124 Left 2
SYMATTR SpiceLine Rser=50
SYMATTR InstName V3
SYMATTR Value SINE(0 1 14000000)
SYMBOL res -592 -96 R90
WINDOW 0 0 56 VBottom 2
WINDOW 3 32 56 VTop 2
SYMATTR InstName R6
SYMATTR Value 50
SYMBOL res -128 336 R90
WINDOW 0 0 56 VBottom 2
WINDOW 3 32 56 VTop 2
SYMATTR InstName R7
SYMATTR Value 370
TEXT 592 504 Left 2 !K3 L1 L2 1
TEXT -434 584 Left 2 !.tran .000001
