Version 4
SHEET 1 976 680
WIRE 112 64 16 64
WIRE 576 64 112 64
WIRE 688 64 576 64
WIRE 688 80 688 64
WIRE 688 208 688 160
WIRE 112 224 112 64
WIRE 880 272 704 272
WIRE 496 304 272 304
WIRE 576 336 576 64
WIRE 704 336 704 272
WIRE -32 352 -208 352
WIRE 112 352 112 304
WIRE 112 352 32 352
WIRE 208 352 112 352
WIRE 880 352 880 272
WIRE -208 368 -208 352
WIRE 112 400 112 352
WIRE 272 432 272 400
WIRE 384 432 272 432
WIRE 272 448 272 432
WIRE 704 448 704 416
WIRE 384 464 384 432
WIRE 496 464 496 304
WIRE 576 464 576 416
WIRE 576 464 496 464
WIRE -208 496 -208 448
WIRE 272 544 272 528
WIRE 384 544 384 528
WIRE 384 544 272 544
WIRE 272 560 272 544
FLAG -208 496 0
FLAG 112 480 0
FLAG 272 560 0
FLAG 704 448 0
FLAG 16 128 0
FLAG 880 432 0
FLAG 688 208 0
SYMBOL voltage -208 352 R0
WINDOW 123 24 124 Left 2
WINDOW 39 24 152 Left 2
SYMATTR Value2 AC 1
SYMATTR SpiceLine Rser=50
SYMATTR InstName V1
SYMATTR Value ""
SYMBOL res 96 208 R0
SYMATTR InstName R1
SYMATTR Value 15k
SYMBOL res 96 384 R0
SYMATTR InstName R2
SYMATTR Value 3.3k
SYMBOL res 256 432 R0
SYMATTR InstName R3
SYMATTR Value 120
SYMBOL npn 208 304 R0
SYMATTR InstName Q1
SYMATTR Value 2N3904
SYMBOL cap 32 336 R90
WINDOW 0 0 32 VBottom 2
WINDOW 3 32 32 VTop 2
SYMATTR InstName C3
SYMATTR Value 100nF
SYMBOL ind2 560 432 M180
WINDOW 0 38 80 Left 2
WINDOW 3 37 56 Left 2
SYMATTR InstName L1
SYMATTR Value 1.6µH
SYMATTR Type ind
SYMBOL ind2 720 432 R180
WINDOW 0 -36 84 Left 2
WINDOW 3 -52 55 Left 2
SYMATTR InstName L2
SYMATTR Value 1.6µH
SYMATTR Type ind
SYMBOL cap 0 64 R0
SYMATTR InstName C4
SYMATTR Value .1µF
SYMBOL res 864 336 R0
SYMATTR InstName R5
SYMATTR Value 50
SYMBOL voltage 688 64 R0
WINDOW 123 0 0 Left 0
WINDOW 39 24 124 Left 2
SYMATTR SpiceLine Rser=10
SYMATTR InstName V2
SYMATTR Value 12
SYMBOL cap 368 464 R0
SYMATTR InstName C1
SYMATTR Value 0.1µ
TEXT 592 504 Left 2 !K3 L1 L2 1
TEXT -104 560 Left 2 !.ac dec 100 3.5MEG 14MEG
