* C:\Users\HPz420\Documents\GitHub\land-boards\lb-boards\HamRadio\BUTTER07\DOCS\Spice_Sims\CWAZ_Low_Pass_7MHz.asc
V1 N003 0 SINE(0 1 1000000 0) AC 1 Rser=50
L1 N003 N001 1.34µ
L2 N001 N002 1.22µ
L3 N002 N004 1.34µ
R1 N004 0 50
C1 0 N003 430p
C2 0 N001 660p
C3 N002 0 660p
C4 N004 0 430p
C5 N002 N001 100p
.ac dec 100 1000000 30000000
.backanno
.end
