Version 4
SHEET 1 880 680
WIRE -64 -32 -960 -32
WIRE 64 -32 16 -32
WIRE 128 -32 64 -32
WIRE 176 -32 128 -32
WIRE 272 -32 176 -32
WIRE -960 16 -960 -32
WIRE 176 48 176 -32
WIRE 272 48 272 -32
WIRE -112 80 -576 80
WIRE -64 80 -112 80
WIRE 64 80 64 -32
WIRE 64 80 16 80
WIRE -576 128 -576 80
WIRE -112 176 -112 80
WIRE -64 176 -112 176
WIRE 64 176 64 80
WIRE 64 176 16 176
WIRE 176 176 176 128
WIRE 272 176 272 112
WIRE 272 176 176 176
WIRE 176 224 176 176
WIRE -960 240 -960 96
WIRE -576 240 -576 208
WIRE -112 256 -112 176
WIRE -64 256 -112 256
WIRE 64 256 64 176
WIRE 64 256 16 256
WIRE -112 336 -112 256
WIRE -64 336 -112 336
WIRE 64 336 64 256
WIRE 64 336 16 336
WIRE -112 416 -112 336
WIRE -64 416 -112 416
WIRE 64 416 64 336
WIRE 64 416 16 416
FLAG -576 240 0
FLAG -960 240 0
FLAG 176 224 0
FLAG 128 -32 VOUT
SYMBOL res 32 64 R90
WINDOW 0 0 56 VBottom 2
WINDOW 3 32 56 VTop 2
SYMATTR InstName R3
SYMATTR Value 1130
SYMBOL res 32 -48 R90
WINDOW 0 0 56 VBottom 2
WINDOW 3 32 56 VTop 2
SYMATTR InstName R4
SYMATTR Value 560
SYMBOL voltage -576 112 R0
WINDOW 123 0 0 Left 0
WINDOW 39 0 0 Left 0
SYMATTR InstName V1
SYMATTR Value PULSE(0 3.3 .25 1ns 1ns .25 .5 4)
SYMBOL voltage -960 0 R0
WINDOW 123 0 0 Left 0
WINDOW 39 0 0 Left 0
SYMATTR InstName V2
SYMATTR Value PULSE(0 3.3 .5 1ns 1ns 1)
SYMBOL res 160 32 R0
SYMATTR InstName R5
SYMATTR Value 75
SYMBOL res 32 160 R90
WINDOW 0 0 56 VBottom 2
WINDOW 3 32 56 VTop 2
SYMATTR InstName R1
SYMATTR Value 2320
SYMBOL res 32 240 R90
WINDOW 0 0 56 VBottom 2
WINDOW 3 32 56 VTop 2
SYMATTR InstName R2
SYMATTR Value 4540
SYMBOL res 32 320 R90
WINDOW 0 0 56 VBottom 2
WINDOW 3 32 56 VTop 2
SYMATTR InstName R6
SYMATTR Value 9090
SYMBOL res 32 400 R90
WINDOW 0 0 56 VBottom 2
WINDOW 3 32 56 VTop 2
SYMATTR InstName R7
SYMATTR Value 17800
SYMBOL cap 256 48 R0
SYMATTR InstName C1
SYMATTR Value 75pF
TEXT -992 264 Left 2 !.tran 1
